data/sourcebus_11000.trafo_75617346_75617346/Loads.dss
New Load.NMI_elem_75619003 bus1=3108550.3 kV=0.23094010767585033 Vminpu=0.7 Vmaxpu=1.3 model=1 kW=1.4978807493739825 kvar=0.3041576587573394 Phases=1
New Load.NMI_elem_75619004 bus1=3106088.2 kV=0.23094010767585033 Vminpu=0.7 Vmaxpu=1.3 model=1 kW=2.237297725182689 kvar=0.45430267951510117 Phases=1
New Load.NMI_elem_75619005 bus1=3108551.2 kV=0.23094010767585033 Vminpu=0.7 Vmaxpu=1.3 model=1 kW=1.3529903075142982 kvar=0.2747363996946428 Phases=1
New Load.NMI_elem_75619039 bus1=3108561.2 kV=0.23094010767585033 Vminpu=0.7 Vmaxpu=1.3 model=1 kW=1.9862905592761557 kvar=0.40333350059658324 Phases=1
New Load.NMI_elem_75619312 bus1=3106340.1 kV=0.23094010767585033 Vminpu=0.7 Vmaxpu=1.3 model=1 kW=0.51765996665571 kvar=0.10511533949295175 Phases=1
New Load.NMI_elem_75619365 bus1=3108673.1 kV=0.23094010767585033 Vminpu=0.7 Vmaxpu=1.3 model=1 kW=0.20247038383717558 kvar=0.041113364960029604 Phases=1
New Load.NMI_elem_75619776 bus1=3104767.2 kV=0.23094010767585033 Vminpu=0.7 Vmaxpu=1.3 model=1 kW=2.1747159642809795 kvar=0.44159491096628256 Phases=1
New Load.NMI_elem_75620095 bus1=3106259.2 kV=0.23094010767585033 Vminpu=0.7 Vmaxpu=1.3 model=1 kW=0.4666422310209952 kvar=0.09475574642638686 Phases=1
